   72
penta 298k B3LYP/TZVP                    E -1.6928173420880E+03 DE-1.3E-08( 15)
 C  -1.411889068328E+00 -9.876501526144E-01  5.889616721781E+00
 C   1.411889068328E+00  9.876501526144E-01 -5.889616721781E+00
 C  -1.805554164653E+00 -2.530228489872E+00  4.064914213905E+00
 C   1.805554164653E+00  2.530228489872E+00 -4.064914213905E+00
 C  -1.887466263012E+00 -2.238851333358E+00  5.390808137444E+00
 C   1.887466263012E+00  2.238851333358E+00 -5.390808137444E+00
 C  -8.649719129398E-01 -6.921522825242E-02  5.047920138153E+00
 C   8.649719129398E-01  6.921522825242E-02 -5.047920138153E+00
 C  -7.454128843074E-01 -3.330509620118E-01  3.644609167063E+00
 C   7.454128843074E-01  3.330509620118E-01 -3.644609167063E+00
 C  -1.795759840169E-01  5.763264850298E-01  2.767304856395E+00
 C   1.795759840169E-01 -5.763264850298E-01 -2.767304856395E+00
 C  -7.861990880708E-02  3.097335641652E-01  1.385035401289E+00
 C   7.861990880708E-02 -3.097335641652E-01 -1.385035401289E+00
 C   4.865255814069E-01  1.223506732205E+00  4.907465289741E-01
 C  -4.865255814069E-01 -1.223506732205E+00 -4.907465289741E-01
 C  -5.772883144924E-01 -9.538173062518E-01  8.781456376230E-01
 C   5.772883144924E-01  9.538173062518E-01 -8.781456376230E-01
 C  -1.142842484194E+00 -1.873586554509E+00  1.785712024576E+00
 C   1.142842484194E+00  1.873586554509E+00 -1.785712024576E+00
 C  -1.234075735737E+00 -1.599137009467E+00  3.139285799930E+00
 C   1.234075735737E+00  1.599137009467E+00 -3.139285799930E+00
 H  -1.492850153162E+00 -7.720951283869E-01  6.948370406167E+00
 H   1.492850153162E+00  7.720951283869E-01 -6.948370406167E+00
 H  -2.171832100054E+00  2.584882025562E+00  3.685544998589E+00
 H   2.171832100054E+00 -2.584882025562E+00 -3.685544998589E+00
 H  -2.324193602360E+00 -2.957039876675E+00  6.075260906135E+00
 H   2.324193602360E+00  2.957039876675E+00 -6.075260906135E+00
 H  -5.175182545051E-01  8.883714000192E-01  5.417041201403E+00
 H   5.175182545051E-01 -8.883714000192E-01 -5.417041201403E+00
 H   1.935588121261E-01  1.520143445313E+00  3.146017544213E+00
 H  -1.935588121261E-01 -1.520143445313E+00 -3.146017544213E+00
 H   8.603843874683E-01  2.167533239671E+00  8.676643104302E-01
 H  -8.603843874683E-01 -2.167533239671E+00 -8.676643104302E-01
 H  -1.511589580075E+00 -2.819380539641E+00  1.408438444163E+00
 H   1.511589580075E+00  2.819380539641E+00 -1.408438444163E+00
 C   2.000535493150E+00  2.476543270003E+00  5.756185708973E+00
 C  -2.000535493150E+00 -2.476543270003E+00 -5.756185708973E+00
 C   1.982151291152E+00 -2.692225300927E+00  4.728898089481E+00
 C  -1.982151291152E+00  2.692225300927E+00 -4.728898089481E+00
 C   2.629520307465E+00 -2.990639254672E+00  3.486731571920E+00
 C  -2.629520307465E+00  2.990639254672E+00 -3.486731571920E+00
 C   2.625839420962E+00 -2.103485981340E+00  2.424605263171E+00
 C  -2.625839420962E+00  2.103485981340E+00 -2.424605263171E+00
 C   3.273322703148E+00 -2.401072326766E+00  1.207092310547E+00
 C  -3.273322703148E+00  2.401072326766E+00 -1.207092310547E+00
 C   3.280607283433E+00 -1.506490063397E+00  1.328725712778E-01
 C  -3.280607283433E+00  1.506490063397E+00 -1.328725712778E-01
 C  -3.927941248114E+00  1.805814649044E+00  1.069388695288E+00
 C   3.927941248114E+00 -1.805814649044E+00 -1.069388695288E+00
 C  -3.936610066346E+00  9.096705811926E-01  2.159271570816E+00
 C   3.936610066346E+00 -9.096705811926E-01 -2.159271570816E+00
 C   3.306400878850E+00  1.795780303796E+00  3.349696852548E+00
 C  -3.306400878850E+00 -1.795780303796E+00 -3.349696852548E+00
 C   3.302940168507E+00  8.961244244732E-01  4.464432764593E+00
 C  -3.302940168507E+00 -8.961244244732E-01 -4.464432764593E+00
 C   2.672299316820E+00  1.222950063620E+00  5.623199711789E+00
 C  -2.672299316820E+00 -1.222950063620E+00 -5.623199711789E+00
 H   1.506316320151E+00  2.720210907307E+00  6.688909166464E+00
 H  -1.506316320151E+00 -2.720210907307E+00 -6.688909166464E+00
 H   1.477495643691E+00 -1.739855773840E+00  4.834419788093E+00
 H  -1.477495643691E+00  1.739855773840E+00 -4.834419788093E+00
 H   2.119086858067E+00 -1.151718294491E+00  2.528332619155E+00
 H  -2.119086858067E+00  1.151718294491E+00 -2.528332619155E+00
 H   2.773350008804E+00 -5.549721956810E-01  2.364297579674E-01
 H  -2.773350008804E+00  5.549721956810E-01 -2.364297579674E-01
 H  -3.428575942504E+00 -4.173913826261E-02  2.057311495660E+00
 H   3.428575942504E+00  4.173913826261E-02 -2.057311495660E+00
 H   3.817179836867E+00 -5.139200037193E-02  4.364410818288E+00
 H  -3.817179836867E+00  5.139200037193E-02 -4.364410818288E+00
 H   2.678287273109E+00  5.322114554895E-01  6.458133817068E+00
 H  -2.678287273109E+00 -5.322114554895E-01 -6.458133817068E+00
