  140
rubre B3LYP/TZVP                         E -3.2331412695503E+03 DE 3.6E-09(  4)
 C   7.342626898764E-01  3.600430430967E-18 -3.349716227671E-19
 C   1.424989346828E+00 -1.023638725993E+00  7.050802951004E-01
 C   1.424989346828E+00  1.023638725993E+00 -7.050802951004E-01
 C  -7.342626898764E-01  7.862425225324E-19 -3.349716227671E-19
 C   7.197879009324E-01 -2.099100591339E+00  1.258344631249E+00
 C   2.883181612983E+00 -9.563223471200E-01  1.041258662372E+00
 C   7.197879009324E-01  2.099100591339E+00 -1.258344631249E+00
 C   2.883181612983E+00  9.563223471200E-01 -1.041258662372E+00
 C  -1.424989346828E+00  1.023638725993E+00 -7.050802951004E-01
 C  -1.424989346828E+00 -1.023638725993E+00  7.050802951004E-01
 C  -7.197879009324E-01 -2.099100591339E+00  1.258344631249E+00
 C   1.390501094560E+00 -3.182771265126E+00  1.915084373786E+00
 C   3.826373083034E+00 -1.777667974087E+00  4.225973737833E-01
 C   3.299721613286E+00 -1.572119644547E-01  2.106956661352E+00
 C  -7.197879009324E-01  2.099100591339E+00 -1.258344631249E+00
 C   1.390501094560E+00  3.182771265126E+00 -1.915084373786E+00
 C   3.826373083034E+00  1.777667974087E+00 -4.225973737833E-01
 C   3.299721613286E+00  1.572119644547E-01 -2.106956661352E+00
 C  -2.883181612983E+00  9.563223471200E-01 -1.041258662372E+00
 C  -2.883181612983E+00 -9.563223471200E-01  1.041258662372E+00
 C  -1.390501094560E+00 -3.182771265126E+00  1.915084373786E+00
 H   2.469246509234E+00 -3.183375762987E+00  1.946990559891E+00
 C   7.083328771359E-01 -4.200580116155E+00  2.501069748403E+00
 H   3.521117089047E+00 -2.399551023170E+00 -4.084694305059E-01
 C   5.142142949708E+00 -1.805591667396E+00  8.632150149023E-01
 H   2.577214988636E+00  4.761528841520E-01  2.602576971690E+00
 C   4.620502607314E+00 -1.672221692750E-01  2.540608550917E+00
 C  -1.390501094560E+00  3.182771265126E+00 -1.915084373786E+00
 H   2.469246509234E+00  3.183375762987E+00 -1.946990559891E+00
 C   7.083328771359E-01  4.200580116155E+00 -2.501069748403E+00
 H   3.521117089047E+00  2.399551023170E+00  4.084694305059E-01
 C   5.142142949708E+00  1.805591667396E+00 -8.632150149023E-01
 H   2.577214988636E+00 -4.761528841520E-01 -2.602576971690E+00
 C   4.620502607314E+00  1.672221692750E-01 -2.540608550917E+00
 C  -3.826373083034E+00  1.777667974087E+00 -4.225973737833E-01
 C  -3.299721613286E+00  1.572119644547E-01 -2.106956661352E+00
 C  -3.826373083034E+00 -1.777667974087E+00  4.225973737833E-01
 C  -3.299721613286E+00 -1.572119644547E-01  2.106956661352E+00
 H  -2.469246509234E+00 -3.183375762987E+00  1.946990559891E+00
 C  -7.083328771359E-01 -4.200580116155E+00  2.501069748403E+00
 H   1.237935807210E+00 -5.003658027081E+00  2.993129625761E+00
 H   5.858021884954E+00 -2.458312119342E+00  3.816396891526E-01
 C   5.548324125369E+00 -9.971643946039E-01  1.921114686035E+00
 H   4.917661338084E+00  4.734907523906E-01  3.362839017479E+00
 H  -2.469246509234E+00  3.183375762987E+00 -1.946990559891E+00
 C  -7.083328771359E-01  4.200580116155E+00 -2.501069748403E+00
 H   1.237935807210E+00  5.003658027081E+00 -2.993129625761E+00
 H   5.858021884954E+00  2.458312119342E+00 -3.816396891526E-01
 C   5.548324125369E+00  9.971643946039E-01 -1.921114686035E+00
 H   4.917661338084E+00 -4.734907523906E-01 -3.362839017479E+00
 H  -3.521117089047E+00  2.399551023170E+00  4.084694305059E-01
 C  -5.142142949708E+00  1.805591667396E+00 -8.632150149023E-01
 H  -2.577214988636E+00 -4.761528841520E-01 -2.602576971690E+00
 C  -4.620502607314E+00  1.672221692750E-01 -2.540608550917E+00
 H  -3.521117089047E+00 -2.399551023170E+00 -4.084694305059E-01
 C  -5.142142949708E+00 -1.805591667396E+00  8.632150149023E-01
 H  -2.577214988636E+00  4.761528841520E-01  2.602576971690E+00
 C  -4.620502607314E+00 -1.672221692750E-01  2.540608550917E+00
 H  -1.237935807210E+00 -5.003658027081E+00  2.993129625761E+00
 H   6.578929904205E+00 -1.020514622355E+00  2.256034699836E+00
 H  -1.237935807210E+00  5.003658027081E+00 -2.993129625761E+00
 H   6.578929904205E+00  1.020514622355E+00 -2.256034699836E+00
 H  -5.858021884954E+00  2.458312119342E+00 -3.816396891526E-01
 C  -5.548324125369E+00  9.971643946039E-01 -1.921114686035E+00
 H  -4.917661338084E+00 -4.734907523906E-01 -3.362839017479E+00
 H  -5.858021884954E+00 -2.458312119342E+00  3.816396891526E-01
 C  -5.548324125369E+00 -9.971643946039E-01  1.921114686035E+00
 H  -4.917661338084E+00  4.734907523906E-01  3.362839017479E+00
 H  -6.578929904205E+00  1.020514622355E+00 -2.256034699836E+00
 H  -6.578929904205E+00 -1.020514622355E+00  2.256034699836E+00
 C  -7.342626898764E-01 -3.585000000000E+00 -7.105500000000E+00
 C  -1.424989346828E+00 -2.561361274007E+00 -6.400419704900E+00
 C  -1.424989346828E+00 -4.608638725993E+00 -7.810580295100E+00
 C   7.342626898764E-01 -3.585000000000E+00 -7.105500000000E+00
 C  -7.197879009324E-01 -1.485899408661E+00 -5.847155368751E+00
 C  -2.883181612983E+00 -2.628677652880E+00 -6.064241337628E+00
 C  -7.197879009324E-01 -5.684100591339E+00 -8.363844631249E+00
 C  -2.883181612983E+00 -4.541322347120E+00 -8.146758662372E+00
 C   1.424989346828E+00 -4.608638725993E+00 -7.810580295100E+00
 C   1.424989346828E+00 -2.561361274007E+00 -6.400419704900E+00
 C   7.197879009324E-01 -1.485899408661E+00 -5.847155368751E+00
 C  -1.390501094560E+00 -4.022287348739E-01 -5.190415626214E+00
 C  -3.826373083034E+00 -1.807332025913E+00 -6.682902626217E+00
 C  -3.299721613286E+00 -3.427788035545E+00 -4.998543338648E+00
 C   7.197879009324E-01 -5.684100591339E+00 -8.363844631249E+00
 C  -1.390501094560E+00 -6.767771265126E+00 -9.020584373786E+00
 C  -3.826373083034E+00 -5.362667974087E+00 -7.528097373783E+00
 C  -3.299721613286E+00 -3.742211964455E+00 -9.212456661352E+00
 C   2.883181612983E+00 -4.541322347120E+00 -8.146758662372E+00
 C   2.883181612983E+00 -2.628677652880E+00 -6.064241337628E+00
 C   1.390501094560E+00 -4.022287348739E-01 -5.190415626214E+00
 H  -2.469246509234E+00 -4.016242370134E-01 -5.158509440109E+00
 C  -7.083328771359E-01  6.155801161551E-01 -4.604430251597E+00
 H  -3.521117089047E+00 -1.185448976830E+00 -7.513969430506E+00
 C  -5.142142949708E+00 -1.779408332604E+00 -6.242284985098E+00
 H  -2.577214988636E+00 -4.061152884152E+00 -4.502923028310E+00
 C  -4.620502607314E+00 -3.417777830725E+00 -4.564891449083E+00
 C   1.390501094560E+00 -6.767771265126E+00 -9.020584373786E+00
 H  -2.469246509234E+00 -6.768375762987E+00 -9.052490559891E+00
 C  -7.083328771359E-01 -7.785580116155E+00 -9.606569748403E+00
 H  -3.521117089047E+00 -5.984551023170E+00 -6.697030569494E+00
 C  -5.142142949708E+00 -5.390591667396E+00 -7.968715014902E+00
 H  -2.577214988636E+00 -3.108847115848E+00 -9.708076971690E+00
 C  -4.620502607314E+00 -3.752222169275E+00 -9.646108550917E+00
 C   3.826373083034E+00 -5.362667974087E+00 -7.528097373783E+00
 C   3.299721613286E+00 -3.742211964455E+00 -9.212456661352E+00
 C   3.826373083034E+00 -1.807332025913E+00 -6.682902626217E+00
 C   3.299721613286E+00 -3.427788035545E+00 -4.998543338648E+00
 H   2.469246509234E+00 -4.016242370134E-01 -5.158509440109E+00
 C   7.083328771359E-01  6.155801161551E-01 -4.604430251597E+00
 H  -1.237935807210E+00  1.418658027081E+00 -4.112370374239E+00
 H  -5.858021884954E+00 -1.126687880658E+00 -6.723860310847E+00
 C  -5.548324125369E+00 -2.587835605396E+00 -5.184385313965E+00
 H  -4.917661338084E+00 -4.058490752391E+00 -3.742660982521E+00
 H   2.469246509234E+00 -6.768375762987E+00 -9.052490559891E+00
 C   7.083328771359E-01 -7.785580116155E+00 -9.606569748403E+00
 H  -1.237935807210E+00 -8.588658027081E+00 -1.009862962576E+01
 H  -5.858021884954E+00 -6.043312119342E+00 -7.487139689153E+00
 C  -5.548324125369E+00 -4.582164394604E+00 -9.026614686035E+00
 H  -4.917661338084E+00 -3.111509247609E+00 -1.046833901748E+01
 H   3.521117089047E+00 -5.984551023170E+00 -6.697030569494E+00
 C   5.142142949708E+00 -5.390591667396E+00 -7.968715014902E+00
 H   2.577214988636E+00 -3.108847115848E+00 -9.708076971690E+00
 C   4.620502607314E+00 -3.752222169275E+00 -9.646108550917E+00
 H   3.521117089047E+00 -1.185448976830E+00 -7.513969430506E+00
 C   5.142142949708E+00 -1.779408332604E+00 -6.242284985098E+00
 H   2.577214988636E+00 -4.061152884152E+00 -4.502923028310E+00
 C   4.620502607314E+00 -3.417777830725E+00 -4.564891449083E+00
 H   1.237935807210E+00  1.418658027081E+00 -4.112370374239E+00
 H  -6.578929904205E+00 -2.564485377645E+00 -4.849465300164E+00
 H   1.237935807210E+00 -8.588658027081E+00 -1.009862962576E+01
 H  -6.578929904205E+00 -4.605514622355E+00 -9.361534699836E+00
 H   5.858021884954E+00 -6.043312119342E+00 -7.487139689153E+00
 C   5.548324125369E+00 -4.582164394604E+00 -9.026614686035E+00
 H   4.917661338084E+00 -3.111509247609E+00 -1.046833901748E+01
 H   5.858021884954E+00 -1.126687880658E+00 -6.723860310847E+00
 C   5.548324125369E+00 -2.587835605396E+00 -5.184385313965E+00
 H   4.917661338084E+00 -4.058490752391E+00 -3.742660982521E+00
 H   6.578929904205E+00 -4.605514622355E+00 -9.361534699836E+00
 H   6.578929904205E+00 -2.564485377645E+00 -4.849465300164E+00
