   88
DP910A B3LYP/TZVP                        E -2.0023235248572E+03 DE 2.1E-08(  5)
 C  -1.478728440433E+00 -2.579771166774E+00 -5.889009430096E+00
 C   1.543077339338E+00 -2.579771166774E+00 -2.556536379014E-01
 C   1.478728440433E+00  2.579771166774E+00  5.889009430096E+00
 C  -1.543077339338E+00  2.579771166774E+00  2.556536379014E-01
 C  -2.723655154147E+00 -2.229775575435E+00 -5.330801231492E+00
 C   2.788004053052E+00 -2.229775575435E+00 -8.138618365054E-01
 C   2.723655154147E+00  2.229775575435E+00  5.330801231492E+00
 C  -2.788004053052E+00  2.229775575435E+00  8.138618365054E-01
 C  -1.492879990847E+00 -3.753055625492E+00  5.570940232729E+00
 C   1.428531091941E+00 -3.753055625492E+00  5.737228352682E-01
 C   1.492879990847E+00  3.753055625492E+00 -5.570940232729E+00
 C  -1.428531091941E+00  3.753055625492E+00 -5.737228352682E-01
 C  -2.866575097554E+00 -1.002159284621E+00 -4.500509163000E+00
 C   2.930923996459E+00 -1.002159284621E+00 -1.644153904998E+00
 C   2.866575097554E+00  1.002159284621E+00  4.500509163000E+00
 C  -2.930923996459E+00  1.002159284621E+00  1.644153904998E+00
 C  -3.641693062005E+00  6.906539338902E-02 -4.956394557067E+00
 C   3.706041960911E+00  6.906539338902E-02 -1.188268510930E+00
 C   3.641693062005E+00 -6.906539338902E-02  4.956394557067E+00
 C  -3.706041960911E+00 -6.906539338902E-02  1.188268510930E+00
 C  -2.253214283170E-01 -4.041832226357E+00  4.976221641180E+00
 C   1.609725294118E-01 -4.041832226357E+00  1.168441426817E+00
 C   2.253214283170E-01  4.041832226357E+00 -4.976221641180E+00
 C  -1.609725294118E-01  4.041832226357E+00 -1.168441426817E+00
 C   7.531832048546E-01 -2.106703584968E+00  6.021703774959E+00
 C  -8.175321037597E-01 -2.106703584968E+00  1.229592930382E-01
 C  -7.531832048546E-01  2.106703584968E+00 -6.021703774959E+00
 C   8.175321037597E-01  2.106703584968E+00 -1.229592930382E-01
 C   8.609598277614E-01 -3.251153608498E+00  5.194458577204E+00
 C  -9.253087266666E-01 -3.251153608498E+00  9.502044907937E-01
 C  -8.609598277614E-01  3.251153608498E+00 -5.194458577204E+00
 C   9.253087266666E-01  3.251153608498E+00 -9.502044907937E-01
 C  -3.099053258878E-01 -1.780150622931E+00 -5.690738893208E+00
 C   3.742542247929E-01 -1.780150622931E+00 -4.539241747896E-01
 C   3.099053258878E-01  1.780150622931E+00  5.690738893208E+00
 C  -3.742542247929E-01  1.780150622931E+00  4.539241747896E-01
 C  -3.195724276135E+00  1.300805318254E+00 -2.937529039233E+00
 C   3.260073175040E+00  1.300805318254E+00 -3.207134028764E+00
 C   3.195724276135E+00 -1.300805318254E+00  2.937529039233E+00
 C  -3.260073175040E+00 -1.300805318254E+00  3.207134028764E+00
 C  -3.814162766397E+00  1.207549781113E+00 -4.178689980019E+00
 C   3.878511665302E+00  1.207549781113E+00 -1.965973087978E+00
 C   3.814162766397E+00 -1.207549781113E+00  4.178689980019E+00
 C  -3.878511665302E+00 -1.207549781113E+00  1.965973087978E+00
 C  -2.251994841047E+00 -8.958204680915E-01 -3.250811362837E+00
 C   2.316343739952E+00 -8.958204680915E-01 -2.893851705160E+00
 C   2.251994841047E+00  8.958204680915E-01  3.250811362837E+00
 C  -2.316343739952E+00  8.958204680915E-01  2.893851705160E+00
 C  -2.409339529124E+00  2.500126998143E-01 -2.481084280527E+00
 C   2.473688428029E+00  2.500126998143E-01 -3.663578787470E+00
 C   2.409339529124E+00 -2.500126998143E-01  2.481084280527E+00
 C  -2.473688428029E+00 -2.500126998143E-01  3.663578787470E+00
 H  -4.105064563032E+00  7.165120513277E-03 -5.933881332777E+00
 H   4.169413461937E+00  7.165120513279E-03 -2.107817352199E-01
 H   4.105064563032E+00 -7.165120513277E-03  5.933881332777E+00
 H  -4.169413461937E+00 -7.165120513279E-03  2.107817352199E-01
 H  -4.421595718565E+00  2.022391943079E+00 -4.552602409565E+00
 H   4.485944617471E+00  2.022391943079E+00 -1.592060658432E+00
 H   4.421595718565E+00 -2.022391943079E+00  4.552602409565E+00
 H  -4.485944617471E+00 -2.022391943079E+00  1.592060658432E+00
 H  -3.317302283787E+00  2.188048962046E+00 -2.329316661336E+00
 H   3.381651182692E+00  2.188048962046E+00 -3.815346406661E+00
 H   3.317302283787E+00 -2.188048962046E+00  2.329316661336E+00
 H  -3.381651182692E+00 -2.188048962046E+00  3.815346406661E+00
 H  -1.914451313128E+00  3.306802719442E-01 -1.522399509416E+00
 H   1.978800212033E+00  3.306802719442E-01 -4.622263558581E+00
 H   1.914451313128E+00 -3.306802719442E-01  1.522399509416E+00
 H  -1.978800212033E+00 -3.306802719442E-01  4.622263558581E+00
 H  -1.642177081406E+00 -1.712581746140E+00 -2.881968923114E+00
 H   1.706525980311E+00 -1.712581746140E+00 -3.262694144883E+00
 H   1.642177081406E+00  1.712581746140E+00  2.881968923114E+00
 H  -1.706525980311E+00  1.712581746140E+00  3.262694144883E+00
 H  -1.345365688402E-01 -4.906243714103E+00  4.334475431694E+00
 H   7.018766993511E-02 -4.906243714103E+00  1.810187636303E+00
 H   1.345365688402E-01  4.906243714103E+00 -4.334475431694E+00
 H  -7.018766993511E-02  4.906243714103E+00 -1.810187636303E+00
 H   1.806490164235E+00 -3.482690183247E+00  4.721696471798E+00
 H  -1.870839063140E+00 -3.482690183247E+00  1.422966596199E+00
 H  -1.806490164235E+00  3.482690183247E+00 -4.721696471798E+00
 H   1.870839063140E+00  3.482690183247E+00 -1.422966596199E+00
 H   1.752157360802E+00 -1.482007508732E+00 -6.117477891075E+00
 H  -1.687808461897E+00 -1.482007508732E+00 -2.718517692240E-02
 H  -1.752157360802E+00  1.482007508732E+00  6.117477891075E+00
 H   1.687808461897E+00  1.482007508732E+00  2.718517692240E-02
 H  -3.877298675548E-01 -8.879438716702E-01 -5.084409109259E+00
 H   4.520787664599E-01 -8.879438716702E-01 -1.060253958738E+00
 H   3.877298675548E-01  8.879438716702E-01  5.084409109259E+00
 H  -4.520787664599E-01  8.879438716702E-01  1.060253958738E+00
