   88
DP26A B3LYP/TZVP                           E -2.0023505323226E+03 DE 1.0E-08(  7)
 C   2.815198887431E+00 -2.949022238753E+00  3.082969904082E+00
 C  -2.850404006721E+00  7.269777612472E-01  3.933162677264E-02
 C  -2.815198887431E+00  2.949022238753E+00 -3.082969904082E+00
 C   2.850404006721E+00 -7.269777612472E-01 -3.933162677264E-02
 H   3.105133252813E+00 -2.335160681102E+00 -2.299492054880E+00
 H  -3.069928133524E+00  1.340839318898E+00 -8.228094759739E-01
 H  -3.105133252813E+00  2.335160681102E+00  2.299492054880E+00
 H   3.069928133524E+00 -1.340839318898E+00  8.228094759739E-01
 C   1.514577760192E+00 -2.966748435170E+00  2.599094138234E+00
 C  -1.549782879481E+00  7.092515648297E-01  5.232073926204E-01
 C  -1.514577760192E+00  2.966748435170E+00 -2.599094138234E+00
 C   1.549782879481E+00 -7.092515648297E-01 -5.232073926204E-01
 H   7.516672028339E-01 -2.392380616049E+00  3.106613683640E+00
 H  -7.868723221232E-01  1.283619383951E+00  1.568784721448E-02
 H  -7.516672028339E-01  2.392380616049E+00 -3.106613683640E+00
 H   7.868723221232E-01 -1.283619383951E+00 -1.568784721448E-02
 C   1.190816298249E+00  3.637326131639E+00  1.473904305109E+00
 C  -1.226021417538E+00 -3.867386836145E-02  1.648397225745E+00
 C  -1.190816298249E+00 -3.637326131639E+00 -1.473904305109E+00
 C   1.226021417538E+00  3.867386836145E-02 -1.648397225745E+00
 H   1.693979160862E-01  3.612357619337E+00  1.115993071223E+00
 H  -2.046030353755E-01 -6.364238066321E-02  2.006308459631E+00
 H  -1.693979160862E-01 -3.612357619337E+00 -1.115993071223E+00
 H   2.046030353755E-01  6.364238066321E-02 -2.006308459631E+00
 C   2.188797960706E+00  2.918663906013E+00  8.240973356122E-01
 C  -2.224003079995E+00 -7.573360939866E-01  2.298204195242E+00
 C  -2.188797960706E+00 -2.918663906013E+00 -8.240973356122E-01
 C   2.224003079995E+00  7.573360939866E-01 -2.298204195242E+00
 H   1.961613577100E+00  2.331659614540E+00 -5.643794508005E-02
 H  -1.996818696389E+00 -1.344340385460E+00  3.178739475934E+00
 H  -1.961613577100E+00 -2.331659614540E+00  5.643794508005E-02
 H   1.996818696389E+00  1.344340385460E+00 -3.178739475934E+00
 C   3.487608274237E+00  2.930412365936E+00  1.313941029620E+00
 C  -3.522813393526E+00 -7.455876340638E-01  1.808360501235E+00
 C  -3.487608274237E+00 -2.930412365936E+00 -1.313941029620E+00
 C   3.522813393526E+00  7.455876340638E-01 -1.808360501235E+00
 H   4.236657412207E+00  2.337091817970E+00  8.090799684034E-01
 H  -4.271862531496E+00 -1.338908182030E+00  2.313221562451E+00
 H  -4.236657412207E+00 -2.337091817970E+00 -8.090799684034E-01
 H   4.271862531496E+00  1.338908182030E+00 -2.313221562451E+00
 C   3.830302994684E+00  3.667096658655E+00  2.455883536465E+00
 C  -3.865508113974E+00 -8.903341344891E-03  6.664179943894E-01
 C  -3.830302994684E+00 -3.667096658655E+00 -2.455883536465E+00
 C   3.865508113974E+00  8.903341344890E-03 -6.664179943894E-01
 C   5.216742104806E+00 -3.664791791330E+00  2.977425249062E+00
 C  -5.251947224095E+00  1.120820866980E-02  1.448762817919E-01
 C  -5.216742104806E+00  3.664791791330E+00 -2.977425249062E+00
 C   5.251947224095E+00 -1.120820866980E-02 -1.448762817919E-01
 C   5.542490424932E+00 -3.242601683636E+00 -1.923332939221E+00
 C  -5.507285305643E+00  4.333983163635E-01 -1.198968591633E+00
 C  -5.542490424932E+00  3.242601683636E+00  1.923332939221E+00
 C   5.507285305643E+00 -4.333983163635E-01  1.198968591633E+00
 H   4.711832999418E+00 -3.033539583755E+00 -1.263043032731E+00
 H  -4.676627880129E+00  6.424604162454E-01 -1.859258498124E+00
 H  -4.711832999418E+00  3.033539583755E+00  1.263043032731E+00
 H   4.676627880129E+00 -6.424604162454E-01  1.859258498124E+00
 C   6.809815834772E+00 -3.098265399457E+00 -1.450229265033E+00
 C  -6.774610715483E+00  5.777346005426E-01 -1.672072265821E+00
 C  -6.809815834772E+00  3.098265399457E+00  1.450229265033E+00
 C   6.774610715483E+00 -5.777346005426E-01  1.672072265821E+00
 H   6.973293513458E+00 -2.750536931248E+00 -4.384740597262E-01
 H  -6.938088394168E+00  9.254630687516E-01 -2.683827471128E+00
 H  -6.973293513458E+00  2.750536931248E+00  4.384740597262E-01
 H   6.938088394168E+00 -9.254630687516E-01  2.683827471128E+00
 C   7.940230986185E+00 -3.378711274811E+00 -2.269000752337E+00
 C  -7.905025866895E+00  2.972887251886E-01 -8.533007785171E-01
 C  -7.940230986185E+00  3.378711274811E+00  2.269000752337E+00
 C   7.905025866895E+00 -2.972887251886E-01  8.533007785171E-01
 C   7.631686514416E+00  3.479542777431E+00  2.648005506805E+00
 C  -7.666891633706E+00 -1.964572225692E-01  4.742960240498E-01
 C  -7.631686514416E+00 -3.479542777431E+00 -2.648005506805E+00
 C   7.666891633706E+00  1.964572225692E-01 -4.742960240498E-01
 C   6.291785684907E+00  3.350439956129E+00  2.191260992688E+00
 C  -6.326990804196E+00 -3.255600438709E-01  9.310405381662E-01
 C  -6.291785684907E+00 -3.350439956129E+00 -2.191260992688E+00
 C   6.326990804196E+00  3.255600438709E-01 -9.310405381662E-01
 H   6.146156538458E+00  3.025588125015E+00  1.169153693151E+00
 H  -6.181361657747E+00 -6.504118749847E-01  1.953147837704E+00
 H  -6.146156538458E+00 -3.025588125015E+00 -1.169153693151E+00
 H   6.181361657747E+00  6.504118749847E-01 -1.953147837704E+00
 C  -8.724610030332E+00 -3.187556595937E+00 -1.828106811007E+00
 C   8.759815149622E+00  4.884434040632E-01 -1.294194719847E+00
 C   8.724610030332E+00  3.187556595937E+00  1.828106811007E+00
 C  -8.759815149622E+00 -4.884434040632E-01  1.294194719847E+00
 H  -8.553026169231E+00 -2.806650194876E+00 -8.280124664900E-01
 H   8.588231288520E+00  8.693498051244E-01 -2.294289064364E+00
 H   8.553026169231E+00  2.806650194876E+00  8.280124664900E-01
 H  -8.588231288520E+00 -8.693498051244E-01  2.294289064364E+00
